@<TRIPOS>MOLECULE
RES
45 44 1 0 1
SMALL
NO_CHARGES
@<TRIPOS>CRYSIN
    9.9980     9.7830    21.7170    90.0000    90.0000    90.0000  1  1
@<TRIPOS>ATOM
       1 SI          -0.0420    -2.9100     0.2200 SI            1 RES     
       2 O           -1.2450    -2.8770     0.0050 O             1 RES     
       3 O            1.1060    -3.1250    -0.1310 O             1 RES     
       4 H           -2.2850    -2.6930     0.3470 H             1 RES     
       5 H            2.1950    -3.3120    -0.3600 H             1 RES     
       6 C            0.1160    -2.5650     1.3170 C             1 RES     
       7 C            0.9550    -2.1630     2.5130 C             1 RES     
       8 H           -0.2610    -3.5350     1.7150 H             1 RES     
       9 H           -0.5750    -1.7140     1.5270 H             1 RES     
      10 C            2.1410    -1.5460     2.3740 C             1 RES     
      11 H            2.5530    -1.3460     1.3880 H             1 RES     
      12 H            2.7140    -1.1940     3.2260 H             1 RES     
      13 C            0.2970    -2.3720     3.8470 C             1 RES     
      14 O           -0.8320    -2.8230     3.9620 O             1 RES     
      15 O            1.0400    -1.9980     4.9110 O             1 RES     
      16 C            0.5270    -2.2400     6.2470 C             1 RES     
      17 C            1.6080    -1.7880     7.2420 C             1 RES     
      18 H            0.3330    -3.3120     6.3590 H             1 RES     
      19 H           -0.4010    -1.6810     6.3980 H             1 RES     
      20 O            1.4230    -2.4210     8.5350 O             1 RES     
      21 H            1.6040    -0.6990     7.3460 H             1 RES     
      22 H            2.5810    -2.1060     6.8610 H             1 RES     
      23 P            0.6930    -1.6700     9.7590 P             1 RES     
      24 O            2.2480    -1.9380    10.1540 O             1 RES     
      25 O           -0.5650    -2.3690     9.4050 O             1 RES     
      26 O            0.7120    -2.3810    11.2070 O             1 RES     
      27 C           -0.0450    -1.8530    12.3270 C             1 RES     
      28 C            0.9060    -1.1610    13.3320 C             1 RES     
      29 H           -0.5410    -2.6950    12.8160 H             1 RES     
      30 H           -0.8020    -1.1540    11.9620 H             1 RES     
      31 N            0.2970    -0.5730    14.6000 N             1 RES     
      32 H            1.4280    -0.3420    12.8280 H             1 RES     
      33 H            1.6460    -1.8860    13.6850 H             1 RES     
      34 C            1.3900     0.0790    15.4170 C             1 RES     
      35 H            1.8750     0.8690    14.8370 H             1 RES     
      36 H            2.1470    -0.6580    15.7010 H             1 RES     
      37 H            0.9840     0.5230    16.3300 H             1 RES     
      38 C           -0.3510    -1.6520    15.4410 C             1 RES     
      39 H           -1.1980    -2.1470    14.9590 H             1 RES     
      40 H           -0.7150    -1.1750    16.3570 H             1 RES     
      41 H            0.3840    -2.4120    15.7190 H             1 RES     
      42 C           -0.7390     0.4730    14.2570 C             1 RES     
      43 H           -0.2870     1.2490    13.6330 H             1 RES     
      44 H           -1.0930     0.9350    15.1830 H             1 RES     
      45 H           -1.6040     0.0610    13.7300 H             1 RES     
@<TRIPOS>BOND
       1       16       15 1
       2       13       15 1
       3       17       16 1
       4       19       16 1
       5       18       16 1
       6       14       13 1
       7        7       13 1
       8        3        5 1
       9        1        3 1
      10       24       23 1
      11       26       23 1
      12       20       23 1
      13       25       23 1
      14       27       26 1
      15       17       20 1
      16       31       28 1
      17       33       28 1
      18       32       28 1
      19       27       28 1
      20       38       31 1
      21       34       31 1
      22       42       31 1
      23       30       27 1
      24       29       27 1
      25       38       41 1
      26       39       38 1
      27       40       38 1
      28       34       36 1
      29       35       34 1
      30       37       34 1
      31       42       45 1
      32       43       42 1
      33       44       42 1
      34       21       17 1
      35       22       17 1
      36        7        6 1
      37        1        6 1
      38        9        6 1
      39        8        6 1
      40       10        7 1
      41        2        1 1
      42       10       12 1
      43       11       10 1
      44        2        4 1
@<TRIPOS>SUBSTRUCTURE
       1 RES             1 RESIDUE    0 **** ROOT      0
